* NGSPICE file created from user_project_wrapper.ext - technology: sky130B

* Black-box entry subcircuit for sky130_sram_1kbyte_1rw1r_8x1024_8 abstract view
.subckt sky130_sram_1kbyte_1rw1r_8x1024_8 din0[0] din0[1] din0[2] din0[3] din0[4]
+ din0[5] din0[6] din0[7] addr0[0] addr0[1] addr0[2] addr0[3] addr0[4] addr0[5] addr0[6]
+ addr0[7] addr0[8] addr0[9] addr1[0] addr1[1] addr1[2] addr1[3] addr1[4] addr1[5]
+ addr1[6] addr1[7] addr1[8] addr1[9] csb0 csb1 web0 clk0 clk1 wmask0[0] dout0[0]
+ dout0[1] dout0[2] dout0[3] dout0[4] dout0[5] dout0[6] dout0[7] dout1[0] dout1[1]
+ dout1[2] dout1[3] dout1[4] dout1[5] dout1[6] dout1[7] vccd1 vssd1
.ends

* Black-box entry subcircuit for cpu abstract view
.subckt cpu addr[0] addr[10] addr[11] addr[1] addr[2] addr[3] addr[4] addr[5] addr[6]
+ addr[7] addr[8] addr[9] clk datain[0] datain[10] datain[11] datain[12] datain[13]
+ datain[14] datain[15] datain[1] datain[2] datain[3] datain[4] datain[5] datain[6]
+ datain[7] datain[8] datain[9] dataout[0] dataout[10] dataout[11] dataout[12] dataout[13]
+ dataout[14] dataout[15] dataout[1] dataout[2] dataout[3] dataout[4] dataout[5] dataout[6]
+ dataout[7] dataout[8] dataout[9] display[0] display[1] display[2] display[3] display[4]
+ display[5] display[6] display[7] en en_inp en_out keyboard[0] keyboard[1] keyboard[2]
+ keyboard[3] keyboard[4] keyboard[5] keyboard[6] keyboard[7] rdwr rst vccd1 vssd1
.ends

* Black-box entry subcircuit for soc_config abstract view
.subckt soc_config addr_from_cpu[0] addr_from_cpu[10] addr_from_cpu[11] addr_from_cpu[1]
+ addr_from_cpu[2] addr_from_cpu[3] addr_from_cpu[4] addr_from_cpu[5] addr_from_cpu[6]
+ addr_from_cpu[7] addr_from_cpu[8] addr_from_cpu[9] addr_to_mem[0] addr_to_mem[1]
+ addr_to_mem[2] addr_to_mem[3] addr_to_mem[4] addr_to_mem[5] addr_to_mem[6] addr_to_mem[7]
+ addr_to_mem[8] addr_to_mem[9] data_from_cpu[0] data_from_cpu[10] data_from_cpu[11]
+ data_from_cpu[12] data_from_cpu[13] data_from_cpu[14] data_from_cpu[15] data_from_cpu[1]
+ data_from_cpu[2] data_from_cpu[3] data_from_cpu[4] data_from_cpu[5] data_from_cpu[6]
+ data_from_cpu[7] data_from_cpu[8] data_from_cpu[9] data_from_mem0[0] data_from_mem0[10]
+ data_from_mem0[11] data_from_mem0[12] data_from_mem0[13] data_from_mem0[14] data_from_mem0[15]
+ data_from_mem0[1] data_from_mem0[2] data_from_mem0[3] data_from_mem0[4] data_from_mem0[5]
+ data_from_mem0[6] data_from_mem0[7] data_from_mem0[8] data_from_mem0[9] data_from_mem1[0]
+ data_from_mem1[10] data_from_mem1[11] data_from_mem1[12] data_from_mem1[13] data_from_mem1[14]
+ data_from_mem1[15] data_from_mem1[1] data_from_mem1[2] data_from_mem1[3] data_from_mem1[4]
+ data_from_mem1[5] data_from_mem1[6] data_from_mem1[7] data_from_mem1[8] data_from_mem1[9]
+ data_from_mem2[0] data_from_mem2[10] data_from_mem2[11] data_from_mem2[12] data_from_mem2[13]
+ data_from_mem2[14] data_from_mem2[15] data_from_mem2[1] data_from_mem2[2] data_from_mem2[3]
+ data_from_mem2[4] data_from_mem2[5] data_from_mem2[6] data_from_mem2[7] data_from_mem2[8]
+ data_from_mem2[9] data_from_mem3[0] data_from_mem3[10] data_from_mem3[11] data_from_mem3[12]
+ data_from_mem3[13] data_from_mem3[14] data_from_mem3[15] data_from_mem3[1] data_from_mem3[2]
+ data_from_mem3[3] data_from_mem3[4] data_from_mem3[5] data_from_mem3[6] data_from_mem3[7]
+ data_from_mem3[8] data_from_mem3[9] data_to_cpu[0] data_to_cpu[10] data_to_cpu[11]
+ data_to_cpu[12] data_to_cpu[13] data_to_cpu[14] data_to_cpu[15] data_to_cpu[1] data_to_cpu[2]
+ data_to_cpu[3] data_to_cpu[4] data_to_cpu[5] data_to_cpu[6] data_to_cpu[7] data_to_cpu[8]
+ data_to_cpu[9] data_to_mem[0] data_to_mem[10] data_to_mem[11] data_to_mem[12] data_to_mem[13]
+ data_to_mem[14] data_to_mem[15] data_to_mem[1] data_to_mem[2] data_to_mem[3] data_to_mem[4]
+ data_to_mem[5] data_to_mem[6] data_to_mem[7] data_to_mem[8] data_to_mem[9] en_display
+ en_from_cpu en_keyboard en_to_memB[0] en_to_memB[1] en_to_memB[2] en_to_memB[3]
+ io_in[0] io_in[10] io_in[11] io_in[12] io_in[13] io_in[14] io_in[15] io_in[16] io_in[17]
+ io_in[18] io_in[19] io_in[1] io_in[20] io_in[21] io_in[22] io_in[23] io_in[24] io_in[25]
+ io_in[26] io_in[27] io_in[28] io_in[29] io_in[2] io_in[30] io_in[31] io_in[32] io_in[33]
+ io_in[34] io_in[35] io_in[36] io_in[37] io_in[3] io_in[4] io_in[5] io_in[6] io_in[7]
+ io_in[8] io_in[9] io_oeb[0] io_oeb[10] io_oeb[11] io_oeb[12] io_oeb[13] io_oeb[14]
+ io_oeb[15] io_oeb[16] io_oeb[17] io_oeb[18] io_oeb[19] io_oeb[1] io_oeb[20] io_oeb[21]
+ io_oeb[22] io_oeb[23] io_oeb[24] io_oeb[25] io_oeb[26] io_oeb[27] io_oeb[28] io_oeb[29]
+ io_oeb[2] io_oeb[30] io_oeb[31] io_oeb[32] io_oeb[33] io_oeb[34] io_oeb[35] io_oeb[36]
+ io_oeb[37] io_oeb[3] io_oeb[4] io_oeb[5] io_oeb[6] io_oeb[7] io_oeb[8] io_oeb[9]
+ io_out[0] io_out[10] io_out[11] io_out[12] io_out[13] io_out[14] io_out[15] io_out[16]
+ io_out[17] io_out[18] io_out[19] io_out[1] io_out[20] io_out[21] io_out[22] io_out[23]
+ io_out[24] io_out[25] io_out[26] io_out[27] io_out[28] io_out[29] io_out[2] io_out[30]
+ io_out[31] io_out[32] io_out[33] io_out[34] io_out[35] io_out[36] io_out[37] io_out[3]
+ io_out[4] io_out[5] io_out[6] io_out[7] io_out[8] io_out[9] irq[0] irq[1] irq[2]
+ la_data_in[0] la_data_in[100] la_data_in[101] la_data_in[102] la_data_in[103] la_data_in[104]
+ la_data_in[105] la_data_in[106] la_data_in[107] la_data_in[108] la_data_in[109]
+ la_data_in[10] la_data_in[110] la_data_in[111] la_data_in[112] la_data_in[113] la_data_in[114]
+ la_data_in[115] la_data_in[116] la_data_in[117] la_data_in[118] la_data_in[119]
+ la_data_in[11] la_data_in[120] la_data_in[121] la_data_in[122] la_data_in[123] la_data_in[124]
+ la_data_in[125] la_data_in[126] la_data_in[127] la_data_in[12] la_data_in[13] la_data_in[14]
+ la_data_in[15] la_data_in[16] la_data_in[17] la_data_in[18] la_data_in[19] la_data_in[1]
+ la_data_in[20] la_data_in[21] la_data_in[22] la_data_in[23] la_data_in[24] la_data_in[25]
+ la_data_in[26] la_data_in[27] la_data_in[28] la_data_in[29] la_data_in[2] la_data_in[30]
+ la_data_in[31] la_data_in[32] la_data_in[33] la_data_in[34] la_data_in[35] la_data_in[36]
+ la_data_in[37] la_data_in[38] la_data_in[39] la_data_in[3] la_data_in[40] la_data_in[41]
+ la_data_in[42] la_data_in[43] la_data_in[44] la_data_in[45] la_data_in[46] la_data_in[47]
+ la_data_in[48] la_data_in[49] la_data_in[4] la_data_in[50] la_data_in[51] la_data_in[52]
+ la_data_in[53] la_data_in[54] la_data_in[55] la_data_in[56] la_data_in[57] la_data_in[58]
+ la_data_in[59] la_data_in[5] la_data_in[60] la_data_in[61] la_data_in[62] la_data_in[63]
+ la_data_in[64] la_data_in[65] la_data_in[66] la_data_in[67] la_data_in[68] la_data_in[69]
+ la_data_in[6] la_data_in[70] la_data_in[71] la_data_in[72] la_data_in[73] la_data_in[74]
+ la_data_in[75] la_data_in[76] la_data_in[77] la_data_in[78] la_data_in[79] la_data_in[7]
+ la_data_in[80] la_data_in[81] la_data_in[82] la_data_in[83] la_data_in[84] la_data_in[85]
+ la_data_in[86] la_data_in[87] la_data_in[88] la_data_in[89] la_data_in[8] la_data_in[90]
+ la_data_in[91] la_data_in[92] la_data_in[93] la_data_in[94] la_data_in[95] la_data_in[96]
+ la_data_in[97] la_data_in[98] la_data_in[99] la_data_in[9] la_data_out[0] la_data_out[100]
+ la_data_out[101] la_data_out[102] la_data_out[103] la_data_out[104] la_data_out[105]
+ la_data_out[106] la_data_out[107] la_data_out[108] la_data_out[109] la_data_out[10]
+ la_data_out[110] la_data_out[111] la_data_out[112] la_data_out[113] la_data_out[114]
+ la_data_out[115] la_data_out[116] la_data_out[117] la_data_out[118] la_data_out[119]
+ la_data_out[11] la_data_out[120] la_data_out[121] la_data_out[122] la_data_out[123]
+ la_data_out[124] la_data_out[125] la_data_out[126] la_data_out[127] la_data_out[12]
+ la_data_out[13] la_data_out[14] la_data_out[15] la_data_out[16] la_data_out[17]
+ la_data_out[18] la_data_out[19] la_data_out[1] la_data_out[20] la_data_out[21] la_data_out[22]
+ la_data_out[23] la_data_out[24] la_data_out[25] la_data_out[26] la_data_out[27]
+ la_data_out[28] la_data_out[29] la_data_out[2] la_data_out[30] la_data_out[31] la_data_out[32]
+ la_data_out[33] la_data_out[34] la_data_out[35] la_data_out[36] la_data_out[37]
+ la_data_out[38] la_data_out[39] la_data_out[3] la_data_out[40] la_data_out[41] la_data_out[42]
+ la_data_out[43] la_data_out[44] la_data_out[45] la_data_out[46] la_data_out[47]
+ la_data_out[48] la_data_out[49] la_data_out[4] la_data_out[50] la_data_out[51] la_data_out[52]
+ la_data_out[53] la_data_out[54] la_data_out[55] la_data_out[56] la_data_out[57]
+ la_data_out[58] la_data_out[59] la_data_out[5] la_data_out[60] la_data_out[61] la_data_out[62]
+ la_data_out[63] la_data_out[64] la_data_out[65] la_data_out[66] la_data_out[67]
+ la_data_out[68] la_data_out[69] la_data_out[6] la_data_out[70] la_data_out[71] la_data_out[72]
+ la_data_out[73] la_data_out[74] la_data_out[75] la_data_out[76] la_data_out[77]
+ la_data_out[78] la_data_out[79] la_data_out[7] la_data_out[80] la_data_out[81] la_data_out[82]
+ la_data_out[83] la_data_out[84] la_data_out[85] la_data_out[86] la_data_out[87]
+ la_data_out[88] la_data_out[89] la_data_out[8] la_data_out[90] la_data_out[91] la_data_out[92]
+ la_data_out[93] la_data_out[94] la_data_out[95] la_data_out[96] la_data_out[97]
+ la_data_out[98] la_data_out[99] la_data_out[9] la_oenb[0] la_oenb[100] la_oenb[101]
+ la_oenb[102] la_oenb[103] la_oenb[104] la_oenb[105] la_oenb[106] la_oenb[107] la_oenb[108]
+ la_oenb[109] la_oenb[10] la_oenb[110] la_oenb[111] la_oenb[112] la_oenb[113] la_oenb[114]
+ la_oenb[115] la_oenb[116] la_oenb[117] la_oenb[118] la_oenb[119] la_oenb[11] la_oenb[120]
+ la_oenb[121] la_oenb[122] la_oenb[123] la_oenb[124] la_oenb[125] la_oenb[126] la_oenb[127]
+ la_oenb[12] la_oenb[13] la_oenb[14] la_oenb[15] la_oenb[16] la_oenb[17] la_oenb[18]
+ la_oenb[19] la_oenb[1] la_oenb[20] la_oenb[21] la_oenb[22] la_oenb[23] la_oenb[24]
+ la_oenb[25] la_oenb[26] la_oenb[27] la_oenb[28] la_oenb[29] la_oenb[2] la_oenb[30]
+ la_oenb[31] la_oenb[32] la_oenb[33] la_oenb[34] la_oenb[35] la_oenb[36] la_oenb[37]
+ la_oenb[38] la_oenb[39] la_oenb[3] la_oenb[40] la_oenb[41] la_oenb[42] la_oenb[43]
+ la_oenb[44] la_oenb[45] la_oenb[46] la_oenb[47] la_oenb[48] la_oenb[49] la_oenb[4]
+ la_oenb[50] la_oenb[51] la_oenb[52] la_oenb[53] la_oenb[54] la_oenb[55] la_oenb[56]
+ la_oenb[57] la_oenb[58] la_oenb[59] la_oenb[5] la_oenb[60] la_oenb[61] la_oenb[62]
+ la_oenb[63] la_oenb[64] la_oenb[65] la_oenb[66] la_oenb[67] la_oenb[68] la_oenb[69]
+ la_oenb[6] la_oenb[70] la_oenb[71] la_oenb[72] la_oenb[73] la_oenb[74] la_oenb[75]
+ la_oenb[76] la_oenb[77] la_oenb[78] la_oenb[79] la_oenb[7] la_oenb[80] la_oenb[81]
+ la_oenb[82] la_oenb[83] la_oenb[84] la_oenb[85] la_oenb[86] la_oenb[87] la_oenb[88]
+ la_oenb[89] la_oenb[8] la_oenb[90] la_oenb[91] la_oenb[92] la_oenb[93] la_oenb[94]
+ la_oenb[95] la_oenb[96] la_oenb[97] la_oenb[98] la_oenb[99] la_oenb[9] rw_from_cpu
+ rw_to_mem soc_clk soc_rst user_clock2 vccd1 vssd1 wb_clk_i wb_rst_i wbs_ack_o wbs_adr_i[0]
+ wbs_adr_i[10] wbs_adr_i[11] wbs_adr_i[12] wbs_adr_i[13] wbs_adr_i[14] wbs_adr_i[15]
+ wbs_adr_i[16] wbs_adr_i[17] wbs_adr_i[18] wbs_adr_i[19] wbs_adr_i[1] wbs_adr_i[20]
+ wbs_adr_i[21] wbs_adr_i[22] wbs_adr_i[23] wbs_adr_i[24] wbs_adr_i[25] wbs_adr_i[26]
+ wbs_adr_i[27] wbs_adr_i[28] wbs_adr_i[29] wbs_adr_i[2] wbs_adr_i[30] wbs_adr_i[31]
+ wbs_adr_i[3] wbs_adr_i[4] wbs_adr_i[5] wbs_adr_i[6] wbs_adr_i[7] wbs_adr_i[8] wbs_adr_i[9]
+ wbs_cyc_i wbs_dat_i[0] wbs_dat_i[10] wbs_dat_i[11] wbs_dat_i[12] wbs_dat_i[13] wbs_dat_i[14]
+ wbs_dat_i[15] wbs_dat_i[16] wbs_dat_i[17] wbs_dat_i[18] wbs_dat_i[19] wbs_dat_i[1]
+ wbs_dat_i[20] wbs_dat_i[21] wbs_dat_i[22] wbs_dat_i[23] wbs_dat_i[24] wbs_dat_i[25]
+ wbs_dat_i[26] wbs_dat_i[27] wbs_dat_i[28] wbs_dat_i[29] wbs_dat_i[2] wbs_dat_i[30]
+ wbs_dat_i[31] wbs_dat_i[3] wbs_dat_i[4] wbs_dat_i[5] wbs_dat_i[6] wbs_dat_i[7] wbs_dat_i[8]
+ wbs_dat_i[9] wbs_dat_o[0] wbs_dat_o[10] wbs_dat_o[11] wbs_dat_o[12] wbs_dat_o[13]
+ wbs_dat_o[14] wbs_dat_o[15] wbs_dat_o[16] wbs_dat_o[17] wbs_dat_o[18] wbs_dat_o[19]
+ wbs_dat_o[1] wbs_dat_o[20] wbs_dat_o[21] wbs_dat_o[22] wbs_dat_o[23] wbs_dat_o[24]
+ wbs_dat_o[25] wbs_dat_o[26] wbs_dat_o[27] wbs_dat_o[28] wbs_dat_o[29] wbs_dat_o[2]
+ wbs_dat_o[30] wbs_dat_o[31] wbs_dat_o[3] wbs_dat_o[4] wbs_dat_o[5] wbs_dat_o[6]
+ wbs_dat_o[7] wbs_dat_o[8] wbs_dat_o[9] wbs_sel_i[0] wbs_sel_i[1] wbs_sel_i[2] wbs_sel_i[3]
+ wbs_stb_i wbs_we_i
.ends

.subckt user_project_wrapper analog_io[0] analog_io[10] analog_io[11] analog_io[12]
+ analog_io[13] analog_io[14] analog_io[15] analog_io[16] analog_io[17] analog_io[18]
+ analog_io[19] analog_io[1] analog_io[20] analog_io[21] analog_io[22] analog_io[23]
+ analog_io[24] analog_io[25] analog_io[26] analog_io[27] analog_io[28] analog_io[2]
+ analog_io[3] analog_io[4] analog_io[5] analog_io[6] analog_io[7] analog_io[8] analog_io[9]
+ io_in[0] io_in[10] io_in[11] io_in[12] io_in[13] io_in[14] io_in[15] io_in[16] io_in[17]
+ io_in[18] io_in[19] io_in[1] io_in[20] io_in[21] io_in[22] io_in[23] io_in[24] io_in[25]
+ io_in[26] io_in[27] io_in[28] io_in[29] io_in[2] io_in[30] io_in[31] io_in[32] io_in[33]
+ io_in[34] io_in[35] io_in[36] io_in[37] io_in[3] io_in[4] io_in[5] io_in[6] io_in[7]
+ io_in[8] io_in[9] io_oeb[0] io_oeb[10] io_oeb[11] io_oeb[12] io_oeb[13] io_oeb[14]
+ io_oeb[15] io_oeb[16] io_oeb[17] io_oeb[18] io_oeb[19] io_oeb[1] io_oeb[20] io_oeb[21]
+ io_oeb[22] io_oeb[23] io_oeb[24] io_oeb[25] io_oeb[26] io_oeb[27] io_oeb[28] io_oeb[29]
+ io_oeb[2] io_oeb[30] io_oeb[31] io_oeb[32] io_oeb[33] io_oeb[34] io_oeb[35] io_oeb[36]
+ io_oeb[37] io_oeb[3] io_oeb[4] io_oeb[5] io_oeb[6] io_oeb[7] io_oeb[8] io_oeb[9]
+ io_out[0] io_out[10] io_out[11] io_out[12] io_out[13] io_out[14] io_out[15] io_out[16]
+ io_out[17] io_out[18] io_out[19] io_out[1] io_out[20] io_out[21] io_out[22] io_out[23]
+ io_out[24] io_out[25] io_out[26] io_out[27] io_out[28] io_out[29] io_out[2] io_out[30]
+ io_out[31] io_out[32] io_out[33] io_out[34] io_out[35] io_out[36] io_out[37] io_out[3]
+ io_out[4] io_out[5] io_out[6] io_out[7] io_out[8] io_out[9] la_data_in[0] la_data_in[100]
+ la_data_in[101] la_data_in[102] la_data_in[103] la_data_in[104] la_data_in[105]
+ la_data_in[106] la_data_in[107] la_data_in[108] la_data_in[109] la_data_in[10] la_data_in[110]
+ la_data_in[111] la_data_in[112] la_data_in[113] la_data_in[114] la_data_in[115]
+ la_data_in[116] la_data_in[117] la_data_in[118] la_data_in[119] la_data_in[11] la_data_in[120]
+ la_data_in[121] la_data_in[122] la_data_in[123] la_data_in[124] la_data_in[125]
+ la_data_in[126] la_data_in[127] la_data_in[12] la_data_in[13] la_data_in[14] la_data_in[15]
+ la_data_in[16] la_data_in[17] la_data_in[18] la_data_in[19] la_data_in[1] la_data_in[20]
+ la_data_in[21] la_data_in[22] la_data_in[23] la_data_in[24] la_data_in[25] la_data_in[26]
+ la_data_in[27] la_data_in[28] la_data_in[29] la_data_in[2] la_data_in[30] la_data_in[31]
+ la_data_in[32] la_data_in[33] la_data_in[34] la_data_in[35] la_data_in[36] la_data_in[37]
+ la_data_in[38] la_data_in[39] la_data_in[3] la_data_in[40] la_data_in[41] la_data_in[42]
+ la_data_in[43] la_data_in[44] la_data_in[45] la_data_in[46] la_data_in[47] la_data_in[48]
+ la_data_in[49] la_data_in[4] la_data_in[50] la_data_in[51] la_data_in[52] la_data_in[53]
+ la_data_in[54] la_data_in[55] la_data_in[56] la_data_in[57] la_data_in[58] la_data_in[59]
+ la_data_in[5] la_data_in[60] la_data_in[61] la_data_in[62] la_data_in[63] la_data_in[64]
+ la_data_in[65] la_data_in[66] la_data_in[67] la_data_in[68] la_data_in[69] la_data_in[6]
+ la_data_in[70] la_data_in[71] la_data_in[72] la_data_in[73] la_data_in[74] la_data_in[75]
+ la_data_in[76] la_data_in[77] la_data_in[78] la_data_in[79] la_data_in[7] la_data_in[80]
+ la_data_in[81] la_data_in[82] la_data_in[83] la_data_in[84] la_data_in[85] la_data_in[86]
+ la_data_in[87] la_data_in[88] la_data_in[89] la_data_in[8] la_data_in[90] la_data_in[91]
+ la_data_in[92] la_data_in[93] la_data_in[94] la_data_in[95] la_data_in[96] la_data_in[97]
+ la_data_in[98] la_data_in[99] la_data_in[9] la_data_out[0] la_data_out[100] la_data_out[101]
+ la_data_out[102] la_data_out[103] la_data_out[104] la_data_out[105] la_data_out[106]
+ la_data_out[107] la_data_out[108] la_data_out[109] la_data_out[10] la_data_out[110]
+ la_data_out[111] la_data_out[112] la_data_out[113] la_data_out[114] la_data_out[115]
+ la_data_out[116] la_data_out[117] la_data_out[118] la_data_out[119] la_data_out[11]
+ la_data_out[120] la_data_out[121] la_data_out[122] la_data_out[123] la_data_out[124]
+ la_data_out[125] la_data_out[126] la_data_out[127] la_data_out[12] la_data_out[13]
+ la_data_out[14] la_data_out[15] la_data_out[16] la_data_out[17] la_data_out[18]
+ la_data_out[19] la_data_out[1] la_data_out[20] la_data_out[21] la_data_out[22] la_data_out[23]
+ la_data_out[24] la_data_out[25] la_data_out[26] la_data_out[27] la_data_out[28]
+ la_data_out[29] la_data_out[2] la_data_out[30] la_data_out[31] la_data_out[32] la_data_out[33]
+ la_data_out[34] la_data_out[35] la_data_out[36] la_data_out[37] la_data_out[38]
+ la_data_out[39] la_data_out[3] la_data_out[40] la_data_out[41] la_data_out[42] la_data_out[43]
+ la_data_out[44] la_data_out[45] la_data_out[46] la_data_out[47] la_data_out[48]
+ la_data_out[49] la_data_out[4] la_data_out[50] la_data_out[51] la_data_out[52] la_data_out[53]
+ la_data_out[54] la_data_out[55] la_data_out[56] la_data_out[57] la_data_out[58]
+ la_data_out[59] la_data_out[5] la_data_out[60] la_data_out[61] la_data_out[62] la_data_out[63]
+ la_data_out[64] la_data_out[65] la_data_out[66] la_data_out[67] la_data_out[68]
+ la_data_out[69] la_data_out[6] la_data_out[70] la_data_out[71] la_data_out[72] la_data_out[73]
+ la_data_out[74] la_data_out[75] la_data_out[76] la_data_out[77] la_data_out[78]
+ la_data_out[79] la_data_out[7] la_data_out[80] la_data_out[81] la_data_out[82] la_data_out[83]
+ la_data_out[84] la_data_out[85] la_data_out[86] la_data_out[87] la_data_out[88]
+ la_data_out[89] la_data_out[8] la_data_out[90] la_data_out[91] la_data_out[92] la_data_out[93]
+ la_data_out[94] la_data_out[95] la_data_out[96] la_data_out[97] la_data_out[98]
+ la_data_out[99] la_data_out[9] la_oenb[0] la_oenb[100] la_oenb[101] la_oenb[102]
+ la_oenb[103] la_oenb[104] la_oenb[105] la_oenb[106] la_oenb[107] la_oenb[108] la_oenb[109]
+ la_oenb[10] la_oenb[110] la_oenb[111] la_oenb[112] la_oenb[113] la_oenb[114] la_oenb[115]
+ la_oenb[116] la_oenb[117] la_oenb[118] la_oenb[119] la_oenb[11] la_oenb[120] la_oenb[121]
+ la_oenb[122] la_oenb[123] la_oenb[124] la_oenb[125] la_oenb[126] la_oenb[127] la_oenb[12]
+ la_oenb[13] la_oenb[14] la_oenb[15] la_oenb[16] la_oenb[17] la_oenb[18] la_oenb[19]
+ la_oenb[1] la_oenb[20] la_oenb[21] la_oenb[22] la_oenb[23] la_oenb[24] la_oenb[25]
+ la_oenb[26] la_oenb[27] la_oenb[28] la_oenb[29] la_oenb[2] la_oenb[30] la_oenb[31]
+ la_oenb[32] la_oenb[33] la_oenb[34] la_oenb[35] la_oenb[36] la_oenb[37] la_oenb[38]
+ la_oenb[39] la_oenb[3] la_oenb[40] la_oenb[41] la_oenb[42] la_oenb[43] la_oenb[44]
+ la_oenb[45] la_oenb[46] la_oenb[47] la_oenb[48] la_oenb[49] la_oenb[4] la_oenb[50]
+ la_oenb[51] la_oenb[52] la_oenb[53] la_oenb[54] la_oenb[55] la_oenb[56] la_oenb[57]
+ la_oenb[58] la_oenb[59] la_oenb[5] la_oenb[60] la_oenb[61] la_oenb[62] la_oenb[63]
+ la_oenb[64] la_oenb[65] la_oenb[66] la_oenb[67] la_oenb[68] la_oenb[69] la_oenb[6]
+ la_oenb[70] la_oenb[71] la_oenb[72] la_oenb[73] la_oenb[74] la_oenb[75] la_oenb[76]
+ la_oenb[77] la_oenb[78] la_oenb[79] la_oenb[7] la_oenb[80] la_oenb[81] la_oenb[82]
+ la_oenb[83] la_oenb[84] la_oenb[85] la_oenb[86] la_oenb[87] la_oenb[88] la_oenb[89]
+ la_oenb[8] la_oenb[90] la_oenb[91] la_oenb[92] la_oenb[93] la_oenb[94] la_oenb[95]
+ la_oenb[96] la_oenb[97] la_oenb[98] la_oenb[99] la_oenb[9] user_clock2 user_irq[0]
+ user_irq[1] user_irq[2] vccd1 vccd2 vdda1 vdda2 vssa1 vssa2 vssd1 vssd2 wb_clk_i
+ wb_rst_i wbs_ack_o wbs_adr_i[0] wbs_adr_i[10] wbs_adr_i[11] wbs_adr_i[12] wbs_adr_i[13]
+ wbs_adr_i[14] wbs_adr_i[15] wbs_adr_i[16] wbs_adr_i[17] wbs_adr_i[18] wbs_adr_i[19]
+ wbs_adr_i[1] wbs_adr_i[20] wbs_adr_i[21] wbs_adr_i[22] wbs_adr_i[23] wbs_adr_i[24]
+ wbs_adr_i[25] wbs_adr_i[26] wbs_adr_i[27] wbs_adr_i[28] wbs_adr_i[29] wbs_adr_i[2]
+ wbs_adr_i[30] wbs_adr_i[31] wbs_adr_i[3] wbs_adr_i[4] wbs_adr_i[5] wbs_adr_i[6]
+ wbs_adr_i[7] wbs_adr_i[8] wbs_adr_i[9] wbs_cyc_i wbs_dat_i[0] wbs_dat_i[10] wbs_dat_i[11]
+ wbs_dat_i[12] wbs_dat_i[13] wbs_dat_i[14] wbs_dat_i[15] wbs_dat_i[16] wbs_dat_i[17]
+ wbs_dat_i[18] wbs_dat_i[19] wbs_dat_i[1] wbs_dat_i[20] wbs_dat_i[21] wbs_dat_i[22]
+ wbs_dat_i[23] wbs_dat_i[24] wbs_dat_i[25] wbs_dat_i[26] wbs_dat_i[27] wbs_dat_i[28]
+ wbs_dat_i[29] wbs_dat_i[2] wbs_dat_i[30] wbs_dat_i[31] wbs_dat_i[3] wbs_dat_i[4]
+ wbs_dat_i[5] wbs_dat_i[6] wbs_dat_i[7] wbs_dat_i[8] wbs_dat_i[9] wbs_dat_o[0] wbs_dat_o[10]
+ wbs_dat_o[11] wbs_dat_o[12] wbs_dat_o[13] wbs_dat_o[14] wbs_dat_o[15] wbs_dat_o[16]
+ wbs_dat_o[17] wbs_dat_o[18] wbs_dat_o[19] wbs_dat_o[1] wbs_dat_o[20] wbs_dat_o[21]
+ wbs_dat_o[22] wbs_dat_o[23] wbs_dat_o[24] wbs_dat_o[25] wbs_dat_o[26] wbs_dat_o[27]
+ wbs_dat_o[28] wbs_dat_o[29] wbs_dat_o[2] wbs_dat_o[30] wbs_dat_o[31] wbs_dat_o[3]
+ wbs_dat_o[4] wbs_dat_o[5] wbs_dat_o[6] wbs_dat_o[7] wbs_dat_o[8] wbs_dat_o[9] wbs_sel_i[0]
+ wbs_sel_i[1] wbs_sel_i[2] wbs_sel_i[3] wbs_stb_i wbs_we_i
XmemLword1 memLword3/din0[0] memLword3/din0[1] memLword3/din0[2] memLword3/din0[3]
+ memLword3/din0[4] memLword3/din0[5] memLword3/din0[6] memLword3/din0[7] memLword3/addr0[0]
+ memLword3/addr0[1] memLword3/addr0[2] memLword3/addr0[3] memLword3/addr0[4] memLword3/addr0[5]
+ memLword3/addr0[6] memLword3/addr0[7] memLword3/addr0[8] memLword3/addr0[9] memLword1/addr1[0]
+ memLword1/addr1[1] memLword1/addr1[2] memLword1/addr1[3] memLword1/addr1[4] memLword1/addr1[5]
+ memLword1/addr1[6] memLword1/addr1[7] memLword1/addr1[8] memLword1/addr1[9] memLword1/csb0
+ memLword1/csb1 mprj/rw_to_mem cpu0/clk memLword1/clk1 memLword1/wmask0[0] memLword1/dout0[0]
+ memLword1/dout0[1] memLword1/dout0[2] memLword1/dout0[3] memLword1/dout0[4] memLword1/dout0[5]
+ memLword1/dout0[6] memLword1/dout0[7] memLword1/dout1[0] memLword1/dout1[1] memLword1/dout1[2]
+ memLword1/dout1[3] memLword1/dout1[4] memLword1/dout1[5] memLword1/dout1[6] memLword1/dout1[7]
+ vccd1 vssd1 sky130_sram_1kbyte_1rw1r_8x1024_8
XmemLword0 memLword3/din0[0] memLword3/din0[1] memLword3/din0[2] memLword3/din0[3]
+ memLword3/din0[4] memLword3/din0[5] memLword3/din0[6] memLword3/din0[7] memLword3/addr0[0]
+ memLword3/addr0[1] memLword3/addr0[2] memLword3/addr0[3] memLword3/addr0[4] memLword3/addr0[5]
+ memLword3/addr0[6] memLword3/addr0[7] memLword3/addr0[8] memLword3/addr0[9] memLword0/addr1[0]
+ memLword0/addr1[1] memLword0/addr1[2] memLword0/addr1[3] memLword0/addr1[4] memLword0/addr1[5]
+ memLword0/addr1[6] memLword0/addr1[7] memLword0/addr1[8] memLword0/addr1[9] memLword0/csb0
+ memLword0/csb1 mprj/rw_to_mem cpu0/clk memLword0/clk1 memLword0/wmask0[0] memLword0/dout0[0]
+ memLword0/dout0[1] memLword0/dout0[2] memLword0/dout0[3] memLword0/dout0[4] memLword0/dout0[5]
+ memLword0/dout0[6] memLword0/dout0[7] memLword0/dout1[0] memLword0/dout1[1] memLword0/dout1[2]
+ memLword0/dout1[3] memLword0/dout1[4] memLword0/dout1[5] memLword0/dout1[6] memLword0/dout1[7]
+ vccd1 vssd1 sky130_sram_1kbyte_1rw1r_8x1024_8
XmemLword2 memLword3/din0[0] memLword3/din0[1] memLword3/din0[2] memLword3/din0[3]
+ memLword3/din0[4] memLword3/din0[5] memLword3/din0[6] memLword3/din0[7] memLword3/addr0[0]
+ memLword3/addr0[1] memLword3/addr0[2] memLword3/addr0[3] memLword3/addr0[4] memLword3/addr0[5]
+ memLword3/addr0[6] memLword3/addr0[7] memLword3/addr0[8] memLword3/addr0[9] memLword2/addr1[0]
+ memLword2/addr1[1] memLword2/addr1[2] memLword2/addr1[3] memLword2/addr1[4] memLword2/addr1[5]
+ memLword2/addr1[6] memLword2/addr1[7] memLword2/addr1[8] memLword2/addr1[9] memLword2/csb0
+ memLword2/csb1 mprj/rw_to_mem cpu0/clk memLword2/clk1 memLword2/wmask0[0] memLword2/dout0[0]
+ memLword2/dout0[1] memLword2/dout0[2] memLword2/dout0[3] memLword2/dout0[4] memLword2/dout0[5]
+ memLword2/dout0[6] memLword2/dout0[7] memLword2/dout1[0] memLword2/dout1[1] memLword2/dout1[2]
+ memLword2/dout1[3] memLword2/dout1[4] memLword2/dout1[5] memLword2/dout1[6] memLword2/dout1[7]
+ vccd1 vssd1 sky130_sram_1kbyte_1rw1r_8x1024_8
XmemLword3 memLword3/din0[0] memLword3/din0[1] memLword3/din0[2] memLword3/din0[3]
+ memLword3/din0[4] memLword3/din0[5] memLword3/din0[6] memLword3/din0[7] memLword3/addr0[0]
+ memLword3/addr0[1] memLword3/addr0[2] memLword3/addr0[3] memLword3/addr0[4] memLword3/addr0[5]
+ memLword3/addr0[6] memLword3/addr0[7] memLword3/addr0[8] memLword3/addr0[9] memLword3/addr1[0]
+ memLword3/addr1[1] memLword3/addr1[2] memLword3/addr1[3] memLword3/addr1[4] memLword3/addr1[5]
+ memLword3/addr1[6] memLword3/addr1[7] memLword3/addr1[8] memLword3/addr1[9] memLword3/csb0
+ memLword3/csb1 mprj/rw_to_mem cpu0/clk memLword3/clk1 memLword3/wmask0[0] memLword3/dout0[0]
+ memLword3/dout0[1] memLword3/dout0[2] memLword3/dout0[3] memLword3/dout0[4] memLword3/dout0[5]
+ memLword3/dout0[6] memLword3/dout0[7] memLword3/dout1[0] memLword3/dout1[1] memLword3/dout1[2]
+ memLword3/dout1[3] memLword3/dout1[4] memLword3/dout1[5] memLword3/dout1[6] memLword3/dout1[7]
+ vccd1 vssd1 sky130_sram_1kbyte_1rw1r_8x1024_8
XmemHword0 memHword3/din0[0] memHword3/din0[1] memHword3/din0[2] memHword3/din0[3]
+ memHword3/din0[4] memHword3/din0[5] memHword3/din0[6] memHword3/din0[7] memLword3/addr0[0]
+ memLword3/addr0[1] memLword3/addr0[2] memLword3/addr0[3] memLword3/addr0[4] memLword3/addr0[5]
+ memLword3/addr0[6] memLword3/addr0[7] memLword3/addr0[8] memLword3/addr0[9] memHword0/addr1[0]
+ memHword0/addr1[1] memHword0/addr1[2] memHword0/addr1[3] memHword0/addr1[4] memHword0/addr1[5]
+ memHword0/addr1[6] memHword0/addr1[7] memHword0/addr1[8] memHword0/addr1[9] memLword0/csb0
+ memHword0/csb1 mprj/rw_to_mem cpu0/clk memHword0/clk1 memHword0/wmask0[0] memHword0/dout0[0]
+ memHword0/dout0[1] memHword0/dout0[2] memHword0/dout0[3] memHword0/dout0[4] memHword0/dout0[5]
+ memHword0/dout0[6] memHword0/dout0[7] memHword0/dout1[0] memHword0/dout1[1] memHword0/dout1[2]
+ memHword0/dout1[3] memHword0/dout1[4] memHword0/dout1[5] memHword0/dout1[6] memHword0/dout1[7]
+ vccd1 vssd1 sky130_sram_1kbyte_1rw1r_8x1024_8
XmemHword1 memHword3/din0[0] memHword3/din0[1] memHword3/din0[2] memHword3/din0[3]
+ memHword3/din0[4] memHword3/din0[5] memHword3/din0[6] memHword3/din0[7] memLword3/addr0[0]
+ memLword3/addr0[1] memLword3/addr0[2] memLword3/addr0[3] memLword3/addr0[4] memLword3/addr0[5]
+ memLword3/addr0[6] memLword3/addr0[7] memLword3/addr0[8] memLword3/addr0[9] memHword1/addr1[0]
+ memHword1/addr1[1] memHword1/addr1[2] memHword1/addr1[3] memHword1/addr1[4] memHword1/addr1[5]
+ memHword1/addr1[6] memHword1/addr1[7] memHword1/addr1[8] memHword1/addr1[9] memLword1/csb0
+ memHword1/csb1 mprj/rw_to_mem cpu0/clk memHword1/clk1 memHword1/wmask0[0] memHword1/dout0[0]
+ memHword1/dout0[1] memHword1/dout0[2] memHword1/dout0[3] memHword1/dout0[4] memHword1/dout0[5]
+ memHword1/dout0[6] memHword1/dout0[7] memHword1/dout1[0] memHword1/dout1[1] memHword1/dout1[2]
+ memHword1/dout1[3] memHword1/dout1[4] memHword1/dout1[5] memHword1/dout1[6] memHword1/dout1[7]
+ vccd1 vssd1 sky130_sram_1kbyte_1rw1r_8x1024_8
Xcpu0 cpu0/addr[0] cpu0/addr[10] cpu0/addr[11] cpu0/addr[1] cpu0/addr[2] cpu0/addr[3]
+ cpu0/addr[4] cpu0/addr[5] cpu0/addr[6] cpu0/addr[7] cpu0/addr[8] cpu0/addr[9] cpu0/clk
+ cpu0/datain[0] cpu0/datain[10] cpu0/datain[11] cpu0/datain[12] cpu0/datain[13] cpu0/datain[14]
+ cpu0/datain[15] cpu0/datain[1] cpu0/datain[2] cpu0/datain[3] cpu0/datain[4] cpu0/datain[5]
+ cpu0/datain[6] cpu0/datain[7] cpu0/datain[8] cpu0/datain[9] cpu0/dataout[0] cpu0/dataout[10]
+ cpu0/dataout[11] cpu0/dataout[12] cpu0/dataout[13] cpu0/dataout[14] cpu0/dataout[15]
+ cpu0/dataout[1] cpu0/dataout[2] cpu0/dataout[3] cpu0/dataout[4] cpu0/dataout[5]
+ cpu0/dataout[6] cpu0/dataout[7] cpu0/dataout[8] cpu0/dataout[9] io_out[22] io_out[23]
+ io_out[24] io_out[25] io_out[26] io_out[27] io_out[28] io_out[29] cpu0/en cpu0/en_inp
+ cpu0/en_out io_in[30] io_in[31] io_in[32] io_in[33] io_in[34] io_in[35] io_in[36]
+ io_in[37] cpu0/rdwr cpu0/rst vccd1 vssd1 cpu
XmemHword2 memHword3/din0[0] memHword3/din0[1] memHword3/din0[2] memHword3/din0[3]
+ memHword3/din0[4] memHword3/din0[5] memHword3/din0[6] memHword3/din0[7] memLword3/addr0[0]
+ memLword3/addr0[1] memLword3/addr0[2] memLword3/addr0[3] memLword3/addr0[4] memLword3/addr0[5]
+ memLword3/addr0[6] memLword3/addr0[7] memLword3/addr0[8] memLword3/addr0[9] memHword2/addr1[0]
+ memHword2/addr1[1] memHword2/addr1[2] memHword2/addr1[3] memHword2/addr1[4] memHword2/addr1[5]
+ memHword2/addr1[6] memHword2/addr1[7] memHword2/addr1[8] memHword2/addr1[9] memLword2/csb0
+ memHword2/csb1 mprj/rw_to_mem cpu0/clk memHword2/clk1 memHword2/wmask0[0] memHword2/dout0[0]
+ memHword2/dout0[1] memHword2/dout0[2] memHword2/dout0[3] memHword2/dout0[4] memHword2/dout0[5]
+ memHword2/dout0[6] memHword2/dout0[7] memHword2/dout1[0] memHword2/dout1[1] memHword2/dout1[2]
+ memHword2/dout1[3] memHword2/dout1[4] memHword2/dout1[5] memHword2/dout1[6] memHword2/dout1[7]
+ vccd1 vssd1 sky130_sram_1kbyte_1rw1r_8x1024_8
XmemHword3 memHword3/din0[0] memHword3/din0[1] memHword3/din0[2] memHword3/din0[3]
+ memHword3/din0[4] memHword3/din0[5] memHword3/din0[6] memHword3/din0[7] memLword3/addr0[0]
+ memLword3/addr0[1] memLword3/addr0[2] memLword3/addr0[3] memLword3/addr0[4] memLword3/addr0[5]
+ memLword3/addr0[6] memLword3/addr0[7] memLword3/addr0[8] memLword3/addr0[9] memHword3/addr1[0]
+ memHword3/addr1[1] memHword3/addr1[2] memHword3/addr1[3] memHword3/addr1[4] memHword3/addr1[5]
+ memHword3/addr1[6] memHword3/addr1[7] memHword3/addr1[8] memHword3/addr1[9] memLword3/csb0
+ memHword3/csb1 mprj/rw_to_mem cpu0/clk memHword3/clk1 memHword3/wmask0[0] memHword3/dout0[0]
+ memHword3/dout0[1] memHword3/dout0[2] memHword3/dout0[3] memHword3/dout0[4] memHword3/dout0[5]